FoamFile
{
    format      ascii;
    class       dictionary;
    location    "constant";
    object      transportProperties;
}

// konstante kinematische Viskosität
viscosityModel  constant;

// nu hat Dimension [m^2/s] = [0 2 -1 0 0 0 0]
// Wasser ~1e-6 m^2/s (20°C).
nu              [0 2 -1 0 0 0 0] 13e-06;
